*INCLUDE, INPUT=geom.inp
*INCLUDE, INPUT=fixed.nam

*BOUNDARY
 Nfixed, 1, 6, 0.0
 Ninterface, 3, 4, 0.0

*MATERIAL,NAME=MEMBRANE
*ELASTIC
 40000.0, 0.4
*DENSITY
 300.

*DAMPING, ALPHA=0.0, BETA=0.0

*SHELL SECTION, MATERIAL=MEMBRANE, ELSET=PLATE
 3.2

*STEP, NLGEOM, INC=10000000000
*DYNAMIC
 1.0, 10001.

*CLOAD
 Ninterface, 1, 0.0
 Ninterface, 2, 0.0
 Ninterface, 3, 0.0

*NODE FILE
 U

*END STEP
