*INCLUDE, INPUT=geom.inp
*INCLUDE, INPUT=fixed.nam

*BOUNDARY
 Nfixed, 1, 6, 0.0
 Ninterface, 3, 4, 0.0

*MATERIAL,NAME=MEMBRANE
*ELASTIC
 1250, 0.4
*DENSITY
 10.

*DAMPING, ALPHA=0.0, BETA=0.0

*SHELL SECTION, MATERIAL=MEMBRANE, ELSET=PLATE
 2.56

*STEP, NLGEOM, INC=10000000000
*DYNAMIC, ALPHA=0.0
 0.25, 1000001.

*CONTROLS,PARAMETERS=TIMEINCREMENTATION
,,,,,,,10,,

*CLOAD
 Ninterface, 1, 0.0
 Ninterface, 2, 0.0
 Ninterface, 3, 0.0

*NODE FILE
 U

*END STEP
